New Loadshape.Shape_1 npts=288 interval=0.0833 mult=(file=C:\2014\ENWL_Network_Creation\Feeder_Representation\Load_files_Model\Load_profiles\Load1_5min.csv) useactual=false
New Loadshape.Shape_2 npts=288 interval=0.0833 mult=(file=C:\2014\ENWL_Network_Creation\Feeder_Representation\Load_files_Model\Load_profiles\Load2_5min.csv) useactual=false
New Loadshape.Shape_3 npts=288 interval=0.0833 mult=(file=C:\2014\ENWL_Network_Creation\Feeder_Representation\Load_files_Model\Load_profiles\Load3_5min.csv) useactual=false
New Loadshape.Shape_4 npts=288 interval=0.0833 mult=(file=C:\2014\ENWL_Network_Creation\Feeder_Representation\Load_files_Model\Load_profiles\Load4_5min.csv) useactual=false
New Loadshape.Shape_5 npts=288 interval=0.0833 mult=(file=C:\2014\ENWL_Network_Creation\Feeder_Representation\Load_files_Model\Load_profiles\Load5_5min.csv) useactual=false
New Loadshape.Shape_6 npts=288 interval=0.0833 mult=(file=C:\2014\ENWL_Network_Creation\Feeder_Representation\Load_files_Model\Load_profiles\Load6_5min.csv) useactual=false
New Loadshape.Shape_7 npts=288 interval=0.0833 mult=(file=C:\2014\ENWL_Network_Creation\Feeder_Representation\Load_files_Model\Load_profiles\Load7_5min.csv) useactual=false
New Loadshape.Shape_8 npts=288 interval=0.0833 mult=(file=C:\2014\ENWL_Network_Creation\Feeder_Representation\Load_files_Model\Load_profiles\Load8_5min.csv) useactual=false
New Loadshape.Shape_9 npts=288 interval=0.0833 mult=(file=C:\2014\ENWL_Network_Creation\Feeder_Representation\Load_files_Model\Load_profiles\Load9_5min.csv) useactual=false
New Loadshape.Shape_10 npts=288 interval=0.0833 mult=(file=C:\2014\ENWL_Network_Creation\Feeder_Representation\Load_files_Model\Load_profiles\Load10_5min.csv) useactual=false
New Loadshape.Shape_11 npts=288 interval=0.0833 mult=(file=C:\2014\ENWL_Network_Creation\Feeder_Representation\Load_files_Model\Load_profiles\Load11_5min.csv) useactual=false
New Loadshape.Shape_12 npts=288 interval=0.0833 mult=(file=C:\2014\ENWL_Network_Creation\Feeder_Representation\Load_files_Model\Load_profiles\Load12_5min.csv) useactual=false
New Loadshape.Shape_13 npts=288 interval=0.0833 mult=(file=C:\2014\ENWL_Network_Creation\Feeder_Representation\Load_files_Model\Load_profiles\Load13_5min.csv) useactual=false
New Loadshape.Shape_14 npts=288 interval=0.0833 mult=(file=C:\2014\ENWL_Network_Creation\Feeder_Representation\Load_files_Model\Load_profiles\Load14_5min.csv) useactual=false
New Loadshape.Shape_15 npts=288 interval=0.0833 mult=(file=C:\2014\ENWL_Network_Creation\Feeder_Representation\Load_files_Model\Load_profiles\Load15_5min.csv) useactual=false
New Loadshape.Shape_16 npts=288 interval=0.0833 mult=(file=C:\2014\ENWL_Network_Creation\Feeder_Representation\Load_files_Model\Load_profiles\Load16_5min.csv) useactual=false
New Loadshape.Shape_17 npts=288 interval=0.0833 mult=(file=C:\2014\ENWL_Network_Creation\Feeder_Representation\Load_files_Model\Load_profiles\Load17_5min.csv) useactual=false
New Loadshape.Shape_18 npts=288 interval=0.0833 mult=(file=C:\2014\ENWL_Network_Creation\Feeder_Representation\Load_files_Model\Load_profiles\Load18_5min.csv) useactual=false
New Loadshape.Shape_19 npts=288 interval=0.0833 mult=(file=C:\2014\ENWL_Network_Creation\Feeder_Representation\Load_files_Model\Load_profiles\Load19_5min.csv) useactual=false
New Loadshape.Shape_20 npts=288 interval=0.0833 mult=(file=C:\2014\ENWL_Network_Creation\Feeder_Representation\Load_files_Model\Load_profiles\Load20_5min.csv) useactual=false
New Loadshape.Shape_21 npts=288 interval=0.0833 mult=(file=C:\2014\ENWL_Network_Creation\Feeder_Representation\Load_files_Model\Load_profiles\Load21_5min.csv) useactual=false
New Loadshape.Shape_22 npts=288 interval=0.0833 mult=(file=C:\2014\ENWL_Network_Creation\Feeder_Representation\Load_files_Model\Load_profiles\Load22_5min.csv) useactual=false
New Loadshape.Shape_23 npts=288 interval=0.0833 mult=(file=C:\2014\ENWL_Network_Creation\Feeder_Representation\Load_files_Model\Load_profiles\Load23_5min.csv) useactual=false
New Loadshape.Shape_24 npts=288 interval=0.0833 mult=(file=C:\2014\ENWL_Network_Creation\Feeder_Representation\Load_files_Model\Load_profiles\Load24_5min.csv) useactual=false
New Loadshape.Shape_25 npts=288 interval=0.0833 mult=(file=C:\2014\ENWL_Network_Creation\Feeder_Representation\Load_files_Model\Load_profiles\Load25_5min.csv) useactual=false
New Loadshape.Shape_26 npts=288 interval=0.0833 mult=(file=C:\2014\ENWL_Network_Creation\Feeder_Representation\Load_files_Model\Load_profiles\Load26_5min.csv) useactual=false
New Loadshape.Shape_27 npts=288 interval=0.0833 mult=(file=C:\2014\ENWL_Network_Creation\Feeder_Representation\Load_files_Model\Load_profiles\Load27_5min.csv) useactual=false
New Loadshape.Shape_28 npts=288 interval=0.0833 mult=(file=C:\2014\ENWL_Network_Creation\Feeder_Representation\Load_files_Model\Load_profiles\Load28_5min.csv) useactual=false
New Loadshape.Shape_29 npts=288 interval=0.0833 mult=(file=C:\2014\ENWL_Network_Creation\Feeder_Representation\Load_files_Model\Load_profiles\Load29_5min.csv) useactual=false
New Loadshape.Shape_30 npts=288 interval=0.0833 mult=(file=C:\2014\ENWL_Network_Creation\Feeder_Representation\Load_files_Model\Load_profiles\Load30_5min.csv) useactual=false
New Loadshape.Shape_31 npts=288 interval=0.0833 mult=(file=C:\2014\ENWL_Network_Creation\Feeder_Representation\Load_files_Model\Load_profiles\Load31_5min.csv) useactual=false
New Loadshape.Shape_32 npts=288 interval=0.0833 mult=(file=C:\2014\ENWL_Network_Creation\Feeder_Representation\Load_files_Model\Load_profiles\Load32_5min.csv) useactual=false
New Loadshape.Shape_33 npts=288 interval=0.0833 mult=(file=C:\2014\ENWL_Network_Creation\Feeder_Representation\Load_files_Model\Load_profiles\Load33_5min.csv) useactual=false
New Loadshape.Shape_34 npts=288 interval=0.0833 mult=(file=C:\2014\ENWL_Network_Creation\Feeder_Representation\Load_files_Model\Load_profiles\Load34_5min.csv) useactual=false
New Loadshape.Shape_35 npts=288 interval=0.0833 mult=(file=C:\2014\ENWL_Network_Creation\Feeder_Representation\Load_files_Model\Load_profiles\Load35_5min.csv) useactual=false
New Loadshape.Shape_36 npts=288 interval=0.0833 mult=(file=C:\2014\ENWL_Network_Creation\Feeder_Representation\Load_files_Model\Load_profiles\Load36_5min.csv) useactual=false
New Loadshape.Shape_37 npts=288 interval=0.0833 mult=(file=C:\2014\ENWL_Network_Creation\Feeder_Representation\Load_files_Model\Load_profiles\Load37_5min.csv) useactual=false
New Loadshape.Shape_38 npts=288 interval=0.0833 mult=(file=C:\2014\ENWL_Network_Creation\Feeder_Representation\Load_files_Model\Load_profiles\Load38_5min.csv) useactual=false
New Loadshape.Shape_39 npts=288 interval=0.0833 mult=(file=C:\2014\ENWL_Network_Creation\Feeder_Representation\Load_files_Model\Load_profiles\Load39_5min.csv) useactual=false
New Loadshape.Shape_40 npts=288 interval=0.0833 mult=(file=C:\2014\ENWL_Network_Creation\Feeder_Representation\Load_files_Model\Load_profiles\Load40_5min.csv) useactual=false
New Loadshape.Shape_41 npts=288 interval=0.0833 mult=(file=C:\2014\ENWL_Network_Creation\Feeder_Representation\Load_files_Model\Load_profiles\Load41_5min.csv) useactual=false
New Loadshape.Shape_42 npts=288 interval=0.0833 mult=(file=C:\2014\ENWL_Network_Creation\Feeder_Representation\Load_files_Model\Load_profiles\Load42_5min.csv) useactual=false
New Loadshape.Shape_43 npts=288 interval=0.0833 mult=(file=C:\2014\ENWL_Network_Creation\Feeder_Representation\Load_files_Model\Load_profiles\Load43_5min.csv) useactual=false
New Loadshape.Shape_44 npts=288 interval=0.0833 mult=(file=C:\2014\ENWL_Network_Creation\Feeder_Representation\Load_files_Model\Load_profiles\Load44_5min.csv) useactual=false
New Loadshape.Shape_45 npts=288 interval=0.0833 mult=(file=C:\2014\ENWL_Network_Creation\Feeder_Representation\Load_files_Model\Load_profiles\Load45_5min.csv) useactual=false
New Loadshape.Shape_46 npts=288 interval=0.0833 mult=(file=C:\2014\ENWL_Network_Creation\Feeder_Representation\Load_files_Model\Load_profiles\Load46_5min.csv) useactual=false
New Loadshape.Shape_47 npts=288 interval=0.0833 mult=(file=C:\2014\ENWL_Network_Creation\Feeder_Representation\Load_files_Model\Load_profiles\Load47_5min.csv) useactual=false
New Loadshape.Shape_48 npts=288 interval=0.0833 mult=(file=C:\2014\ENWL_Network_Creation\Feeder_Representation\Load_files_Model\Load_profiles\Load48_5min.csv) useactual=false
New Loadshape.Shape_49 npts=288 interval=0.0833 mult=(file=C:\2014\ENWL_Network_Creation\Feeder_Representation\Load_files_Model\Load_profiles\Load49_5min.csv) useactual=false
