New Loadshape.Shape_1 npts=288 interval=0.0833 mult=(file=C:\2014\ENWL_Network_Creation\Feeder_Representation\Load_files_Model\Load_profiles\Load1_5min.csv) useactual=false
New Loadshape.Shape_2 npts=288 interval=0.0833 mult=(file=C:\2014\ENWL_Network_Creation\Feeder_Representation\Load_files_Model\Load_profiles\Load2_5min.csv) useactual=false
New Loadshape.Shape_3 npts=288 interval=0.0833 mult=(file=C:\2014\ENWL_Network_Creation\Feeder_Representation\Load_files_Model\Load_profiles\Load3_5min.csv) useactual=false
New Loadshape.Shape_4 npts=288 interval=0.0833 mult=(file=C:\2014\ENWL_Network_Creation\Feeder_Representation\Load_files_Model\Load_profiles\Load4_5min.csv) useactual=false
New Loadshape.Shape_5 npts=288 interval=0.0833 mult=(file=C:\2014\ENWL_Network_Creation\Feeder_Representation\Load_files_Model\Load_profiles\Load5_5min.csv) useactual=false
New Loadshape.Shape_6 npts=288 interval=0.0833 mult=(file=C:\2014\ENWL_Network_Creation\Feeder_Representation\Load_files_Model\Load_profiles\Load6_5min.csv) useactual=false
New Loadshape.Shape_7 npts=288 interval=0.0833 mult=(file=C:\2014\ENWL_Network_Creation\Feeder_Representation\Load_files_Model\Load_profiles\Load7_5min.csv) useactual=false
New Loadshape.Shape_8 npts=288 interval=0.0833 mult=(file=C:\2014\ENWL_Network_Creation\Feeder_Representation\Load_files_Model\Load_profiles\Load8_5min.csv) useactual=false
New Loadshape.Shape_9 npts=288 interval=0.0833 mult=(file=C:\2014\ENWL_Network_Creation\Feeder_Representation\Load_files_Model\Load_profiles\Load9_5min.csv) useactual=false
New Loadshape.Shape_10 npts=288 interval=0.0833 mult=(file=C:\2014\ENWL_Network_Creation\Feeder_Representation\Load_files_Model\Load_profiles\Load10_5min.csv) useactual=false
New Loadshape.Shape_11 npts=288 interval=0.0833 mult=(file=C:\2014\ENWL_Network_Creation\Feeder_Representation\Load_files_Model\Load_profiles\Load11_5min.csv) useactual=false
New Loadshape.Shape_12 npts=288 interval=0.0833 mult=(file=C:\2014\ENWL_Network_Creation\Feeder_Representation\Load_files_Model\Load_profiles\Load12_5min.csv) useactual=false
New Loadshape.Shape_13 npts=288 interval=0.0833 mult=(file=C:\2014\ENWL_Network_Creation\Feeder_Representation\Load_files_Model\Load_profiles\Load13_5min.csv) useactual=false
New Loadshape.Shape_14 npts=288 interval=0.0833 mult=(file=C:\2014\ENWL_Network_Creation\Feeder_Representation\Load_files_Model\Load_profiles\Load14_5min.csv) useactual=false
New Loadshape.Shape_15 npts=288 interval=0.0833 mult=(file=C:\2014\ENWL_Network_Creation\Feeder_Representation\Load_files_Model\Load_profiles\Load15_5min.csv) useactual=false
New Loadshape.Shape_16 npts=288 interval=0.0833 mult=(file=C:\2014\ENWL_Network_Creation\Feeder_Representation\Load_files_Model\Load_profiles\Load16_5min.csv) useactual=false
New Loadshape.Shape_17 npts=288 interval=0.0833 mult=(file=C:\2014\ENWL_Network_Creation\Feeder_Representation\Load_files_Model\Load_profiles\Load17_5min.csv) useactual=false
New Loadshape.Shape_18 npts=288 interval=0.0833 mult=(file=C:\2014\ENWL_Network_Creation\Feeder_Representation\Load_files_Model\Load_profiles\Load18_5min.csv) useactual=false
New Loadshape.Shape_19 npts=288 interval=0.0833 mult=(file=C:\2014\ENWL_Network_Creation\Feeder_Representation\Load_files_Model\Load_profiles\Load19_5min.csv) useactual=false
New Loadshape.Shape_20 npts=288 interval=0.0833 mult=(file=C:\2014\ENWL_Network_Creation\Feeder_Representation\Load_files_Model\Load_profiles\Load20_5min.csv) useactual=false
New Loadshape.Shape_21 npts=288 interval=0.0833 mult=(file=C:\2014\ENWL_Network_Creation\Feeder_Representation\Load_files_Model\Load_profiles\Load21_5min.csv) useactual=false
New Loadshape.Shape_22 npts=288 interval=0.0833 mult=(file=C:\2014\ENWL_Network_Creation\Feeder_Representation\Load_files_Model\Load_profiles\Load22_5min.csv) useactual=false
New Loadshape.Shape_23 npts=288 interval=0.0833 mult=(file=C:\2014\ENWL_Network_Creation\Feeder_Representation\Load_files_Model\Load_profiles\Load23_5min.csv) useactual=false
New Loadshape.Shape_24 npts=288 interval=0.0833 mult=(file=C:\2014\ENWL_Network_Creation\Feeder_Representation\Load_files_Model\Load_profiles\Load24_5min.csv) useactual=false
New Loadshape.Shape_25 npts=288 interval=0.0833 mult=(file=C:\2014\ENWL_Network_Creation\Feeder_Representation\Load_files_Model\Load_profiles\Load25_5min.csv) useactual=false
New Loadshape.Shape_26 npts=288 interval=0.0833 mult=(file=C:\2014\ENWL_Network_Creation\Feeder_Representation\Load_files_Model\Load_profiles\Load26_5min.csv) useactual=false
New Loadshape.Shape_27 npts=288 interval=0.0833 mult=(file=C:\2014\ENWL_Network_Creation\Feeder_Representation\Load_files_Model\Load_profiles\Load27_5min.csv) useactual=false
New Loadshape.Shape_28 npts=288 interval=0.0833 mult=(file=C:\2014\ENWL_Network_Creation\Feeder_Representation\Load_files_Model\Load_profiles\Load28_5min.csv) useactual=false
New Loadshape.Shape_29 npts=288 interval=0.0833 mult=(file=C:\2014\ENWL_Network_Creation\Feeder_Representation\Load_files_Model\Load_profiles\Load29_5min.csv) useactual=false
New Loadshape.Shape_30 npts=288 interval=0.0833 mult=(file=C:\2014\ENWL_Network_Creation\Feeder_Representation\Load_files_Model\Load_profiles\Load30_5min.csv) useactual=false
New Loadshape.Shape_31 npts=288 interval=0.0833 mult=(file=C:\2014\ENWL_Network_Creation\Feeder_Representation\Load_files_Model\Load_profiles\Load31_5min.csv) useactual=false
New Loadshape.Shape_32 npts=288 interval=0.0833 mult=(file=C:\2014\ENWL_Network_Creation\Feeder_Representation\Load_files_Model\Load_profiles\Load32_5min.csv) useactual=false
New Loadshape.Shape_33 npts=288 interval=0.0833 mult=(file=C:\2014\ENWL_Network_Creation\Feeder_Representation\Load_files_Model\Load_profiles\Load33_5min.csv) useactual=false
New Loadshape.Shape_34 npts=288 interval=0.0833 mult=(file=C:\2014\ENWL_Network_Creation\Feeder_Representation\Load_files_Model\Load_profiles\Load34_5min.csv) useactual=false
New Loadshape.Shape_35 npts=288 interval=0.0833 mult=(file=C:\2014\ENWL_Network_Creation\Feeder_Representation\Load_files_Model\Load_profiles\Load35_5min.csv) useactual=false
New Loadshape.Shape_36 npts=288 interval=0.0833 mult=(file=C:\2014\ENWL_Network_Creation\Feeder_Representation\Load_files_Model\Load_profiles\Load36_5min.csv) useactual=false
New Loadshape.Shape_37 npts=288 interval=0.0833 mult=(file=C:\2014\ENWL_Network_Creation\Feeder_Representation\Load_files_Model\Load_profiles\Load37_5min.csv) useactual=false
New Loadshape.Shape_38 npts=288 interval=0.0833 mult=(file=C:\2014\ENWL_Network_Creation\Feeder_Representation\Load_files_Model\Load_profiles\Load38_5min.csv) useactual=false
New Loadshape.Shape_39 npts=288 interval=0.0833 mult=(file=C:\2014\ENWL_Network_Creation\Feeder_Representation\Load_files_Model\Load_profiles\Load39_5min.csv) useactual=false
New Loadshape.Shape_40 npts=288 interval=0.0833 mult=(file=C:\2014\ENWL_Network_Creation\Feeder_Representation\Load_files_Model\Load_profiles\Load40_5min.csv) useactual=false
New Loadshape.Shape_41 npts=288 interval=0.0833 mult=(file=C:\2014\ENWL_Network_Creation\Feeder_Representation\Load_files_Model\Load_profiles\Load41_5min.csv) useactual=false
New Loadshape.Shape_42 npts=288 interval=0.0833 mult=(file=C:\2014\ENWL_Network_Creation\Feeder_Representation\Load_files_Model\Load_profiles\Load42_5min.csv) useactual=false
New Loadshape.Shape_43 npts=288 interval=0.0833 mult=(file=C:\2014\ENWL_Network_Creation\Feeder_Representation\Load_files_Model\Load_profiles\Load43_5min.csv) useactual=false
New Loadshape.Shape_44 npts=288 interval=0.0833 mult=(file=C:\2014\ENWL_Network_Creation\Feeder_Representation\Load_files_Model\Load_profiles\Load44_5min.csv) useactual=false
New Loadshape.Shape_45 npts=288 interval=0.0833 mult=(file=C:\2014\ENWL_Network_Creation\Feeder_Representation\Load_files_Model\Load_profiles\Load45_5min.csv) useactual=false
New Loadshape.Shape_46 npts=288 interval=0.0833 mult=(file=C:\2014\ENWL_Network_Creation\Feeder_Representation\Load_files_Model\Load_profiles\Load46_5min.csv) useactual=false
New Loadshape.Shape_47 npts=288 interval=0.0833 mult=(file=C:\2014\ENWL_Network_Creation\Feeder_Representation\Load_files_Model\Load_profiles\Load47_5min.csv) useactual=false
New Loadshape.Shape_48 npts=288 interval=0.0833 mult=(file=C:\2014\ENWL_Network_Creation\Feeder_Representation\Load_files_Model\Load_profiles\Load48_5min.csv) useactual=false
New Loadshape.Shape_49 npts=288 interval=0.0833 mult=(file=C:\2014\ENWL_Network_Creation\Feeder_Representation\Load_files_Model\Load_profiles\Load49_5min.csv) useactual=false
New Loadshape.Shape_50 npts=288 interval=0.0833 mult=(file=C:\2014\ENWL_Network_Creation\Feeder_Representation\Load_files_Model\Load_profiles\Load50_5min.csv) useactual=false
New Loadshape.Shape_51 npts=288 interval=0.0833 mult=(file=C:\2014\ENWL_Network_Creation\Feeder_Representation\Load_files_Model\Load_profiles\Load51_5min.csv) useactual=false
New Loadshape.Shape_52 npts=288 interval=0.0833 mult=(file=C:\2014\ENWL_Network_Creation\Feeder_Representation\Load_files_Model\Load_profiles\Load52_5min.csv) useactual=false
New Loadshape.Shape_53 npts=288 interval=0.0833 mult=(file=C:\2014\ENWL_Network_Creation\Feeder_Representation\Load_files_Model\Load_profiles\Load53_5min.csv) useactual=false
New Loadshape.Shape_54 npts=288 interval=0.0833 mult=(file=C:\2014\ENWL_Network_Creation\Feeder_Representation\Load_files_Model\Load_profiles\Load54_5min.csv) useactual=false
New Loadshape.Shape_55 npts=288 interval=0.0833 mult=(file=C:\2014\ENWL_Network_Creation\Feeder_Representation\Load_files_Model\Load_profiles\Load55_5min.csv) useactual=false
New Loadshape.Shape_56 npts=288 interval=0.0833 mult=(file=C:\2014\ENWL_Network_Creation\Feeder_Representation\Load_files_Model\Load_profiles\Load56_5min.csv) useactual=false
New Loadshape.Shape_57 npts=288 interval=0.0833 mult=(file=C:\2014\ENWL_Network_Creation\Feeder_Representation\Load_files_Model\Load_profiles\Load57_5min.csv) useactual=false
New Loadshape.Shape_58 npts=288 interval=0.0833 mult=(file=C:\2014\ENWL_Network_Creation\Feeder_Representation\Load_files_Model\Load_profiles\Load58_5min.csv) useactual=false
New Loadshape.Shape_59 npts=288 interval=0.0833 mult=(file=C:\2014\ENWL_Network_Creation\Feeder_Representation\Load_files_Model\Load_profiles\Load59_5min.csv) useactual=false
New Loadshape.Shape_60 npts=288 interval=0.0833 mult=(file=C:\2014\ENWL_Network_Creation\Feeder_Representation\Load_files_Model\Load_profiles\Load60_5min.csv) useactual=false
New Loadshape.Shape_61 npts=288 interval=0.0833 mult=(file=C:\2014\ENWL_Network_Creation\Feeder_Representation\Load_files_Model\Load_profiles\Load61_5min.csv) useactual=false
New Loadshape.Shape_62 npts=288 interval=0.0833 mult=(file=C:\2014\ENWL_Network_Creation\Feeder_Representation\Load_files_Model\Load_profiles\Load62_5min.csv) useactual=false
New Loadshape.Shape_63 npts=288 interval=0.0833 mult=(file=C:\2014\ENWL_Network_Creation\Feeder_Representation\Load_files_Model\Load_profiles\Load63_5min.csv) useactual=false
New Loadshape.Shape_64 npts=288 interval=0.0833 mult=(file=C:\2014\ENWL_Network_Creation\Feeder_Representation\Load_files_Model\Load_profiles\Load64_5min.csv) useactual=false
New Loadshape.Shape_65 npts=288 interval=0.0833 mult=(file=C:\2014\ENWL_Network_Creation\Feeder_Representation\Load_files_Model\Load_profiles\Load65_5min.csv) useactual=false
New Loadshape.Shape_66 npts=288 interval=0.0833 mult=(file=C:\2014\ENWL_Network_Creation\Feeder_Representation\Load_files_Model\Load_profiles\Load66_5min.csv) useactual=false
New Loadshape.Shape_67 npts=288 interval=0.0833 mult=(file=C:\2014\ENWL_Network_Creation\Feeder_Representation\Load_files_Model\Load_profiles\Load67_5min.csv) useactual=false
New Loadshape.Shape_68 npts=288 interval=0.0833 mult=(file=C:\2014\ENWL_Network_Creation\Feeder_Representation\Load_files_Model\Load_profiles\Load68_5min.csv) useactual=false
New Loadshape.Shape_69 npts=288 interval=0.0833 mult=(file=C:\2014\ENWL_Network_Creation\Feeder_Representation\Load_files_Model\Load_profiles\Load69_5min.csv) useactual=false
New Loadshape.Shape_70 npts=288 interval=0.0833 mult=(file=C:\2014\ENWL_Network_Creation\Feeder_Representation\Load_files_Model\Load_profiles\Load70_5min.csv) useactual=false
New Loadshape.Shape_71 npts=288 interval=0.0833 mult=(file=C:\2014\ENWL_Network_Creation\Feeder_Representation\Load_files_Model\Load_profiles\Load71_5min.csv) useactual=false
New Loadshape.Shape_72 npts=288 interval=0.0833 mult=(file=C:\2014\ENWL_Network_Creation\Feeder_Representation\Load_files_Model\Load_profiles\Load72_5min.csv) useactual=false
New Loadshape.Shape_73 npts=288 interval=0.0833 mult=(file=C:\2014\ENWL_Network_Creation\Feeder_Representation\Load_files_Model\Load_profiles\Load73_5min.csv) useactual=false
New Loadshape.Shape_74 npts=288 interval=0.0833 mult=(file=C:\2014\ENWL_Network_Creation\Feeder_Representation\Load_files_Model\Load_profiles\Load74_5min.csv) useactual=false
New Loadshape.Shape_75 npts=288 interval=0.0833 mult=(file=C:\2014\ENWL_Network_Creation\Feeder_Representation\Load_files_Model\Load_profiles\Load75_5min.csv) useactual=false
New Loadshape.Shape_76 npts=288 interval=0.0833 mult=(file=C:\2014\ENWL_Network_Creation\Feeder_Representation\Load_files_Model\Load_profiles\Load76_5min.csv) useactual=false
New Loadshape.Shape_77 npts=288 interval=0.0833 mult=(file=C:\2014\ENWL_Network_Creation\Feeder_Representation\Load_files_Model\Load_profiles\Load77_5min.csv) useactual=false
New Loadshape.Shape_78 npts=288 interval=0.0833 mult=(file=C:\2014\ENWL_Network_Creation\Feeder_Representation\Load_files_Model\Load_profiles\Load78_5min.csv) useactual=false
New Loadshape.Shape_79 npts=288 interval=0.0833 mult=(file=C:\2014\ENWL_Network_Creation\Feeder_Representation\Load_files_Model\Load_profiles\Load79_5min.csv) useactual=false
New Loadshape.Shape_80 npts=288 interval=0.0833 mult=(file=C:\2014\ENWL_Network_Creation\Feeder_Representation\Load_files_Model\Load_profiles\Load80_5min.csv) useactual=false
New Loadshape.Shape_81 npts=288 interval=0.0833 mult=(file=C:\2014\ENWL_Network_Creation\Feeder_Representation\Load_files_Model\Load_profiles\Load81_5min.csv) useactual=false
New Loadshape.Shape_82 npts=288 interval=0.0833 mult=(file=C:\2014\ENWL_Network_Creation\Feeder_Representation\Load_files_Model\Load_profiles\Load82_5min.csv) useactual=false
New Loadshape.Shape_83 npts=288 interval=0.0833 mult=(file=C:\2014\ENWL_Network_Creation\Feeder_Representation\Load_files_Model\Load_profiles\Load83_5min.csv) useactual=false
New Loadshape.Shape_84 npts=288 interval=0.0833 mult=(file=C:\2014\ENWL_Network_Creation\Feeder_Representation\Load_files_Model\Load_profiles\Load84_5min.csv) useactual=false
New Loadshape.Shape_85 npts=288 interval=0.0833 mult=(file=C:\2014\ENWL_Network_Creation\Feeder_Representation\Load_files_Model\Load_profiles\Load85_5min.csv) useactual=false
New Loadshape.Shape_86 npts=288 interval=0.0833 mult=(file=C:\2014\ENWL_Network_Creation\Feeder_Representation\Load_files_Model\Load_profiles\Load86_5min.csv) useactual=false
New Loadshape.Shape_87 npts=288 interval=0.0833 mult=(file=C:\2014\ENWL_Network_Creation\Feeder_Representation\Load_files_Model\Load_profiles\Load87_5min.csv) useactual=false
New Loadshape.Shape_88 npts=288 interval=0.0833 mult=(file=C:\2014\ENWL_Network_Creation\Feeder_Representation\Load_files_Model\Load_profiles\Load88_5min.csv) useactual=false
New Loadshape.Shape_89 npts=288 interval=0.0833 mult=(file=C:\2014\ENWL_Network_Creation\Feeder_Representation\Load_files_Model\Load_profiles\Load89_5min.csv) useactual=false
New Loadshape.Shape_90 npts=288 interval=0.0833 mult=(file=C:\2014\ENWL_Network_Creation\Feeder_Representation\Load_files_Model\Load_profiles\Load90_5min.csv) useactual=false
New Loadshape.Shape_91 npts=288 interval=0.0833 mult=(file=C:\2014\ENWL_Network_Creation\Feeder_Representation\Load_files_Model\Load_profiles\Load91_5min.csv) useactual=false
New Loadshape.Shape_92 npts=288 interval=0.0833 mult=(file=C:\2014\ENWL_Network_Creation\Feeder_Representation\Load_files_Model\Load_profiles\Load92_5min.csv) useactual=false
New Loadshape.Shape_93 npts=288 interval=0.0833 mult=(file=C:\2014\ENWL_Network_Creation\Feeder_Representation\Load_files_Model\Load_profiles\Load93_5min.csv) useactual=false
New Loadshape.Shape_94 npts=288 interval=0.0833 mult=(file=C:\2014\ENWL_Network_Creation\Feeder_Representation\Load_files_Model\Load_profiles\Load94_5min.csv) useactual=false
New Loadshape.Shape_95 npts=288 interval=0.0833 mult=(file=C:\2014\ENWL_Network_Creation\Feeder_Representation\Load_files_Model\Load_profiles\Load95_5min.csv) useactual=false
New Loadshape.Shape_96 npts=288 interval=0.0833 mult=(file=C:\2014\ENWL_Network_Creation\Feeder_Representation\Load_files_Model\Load_profiles\Load96_5min.csv) useactual=false
New Loadshape.Shape_97 npts=288 interval=0.0833 mult=(file=C:\2014\ENWL_Network_Creation\Feeder_Representation\Load_files_Model\Load_profiles\Load97_5min.csv) useactual=false
New Loadshape.Shape_98 npts=288 interval=0.0833 mult=(file=C:\2014\ENWL_Network_Creation\Feeder_Representation\Load_files_Model\Load_profiles\Load98_5min.csv) useactual=false
New Loadshape.Shape_99 npts=288 interval=0.0833 mult=(file=C:\2014\ENWL_Network_Creation\Feeder_Representation\Load_files_Model\Load_profiles\Load99_5min.csv) useactual=false
New Loadshape.Shape_100 npts=288 interval=0.0833 mult=(file=C:\2014\ENWL_Network_Creation\Feeder_Representation\Load_files_Model\Load_profiles\Load100_5min.csv) useactual=false
New Loadshape.Shape_101 npts=288 interval=0.0833 mult=(file=C:\2014\ENWL_Network_Creation\Feeder_Representation\Load_files_Model\Load_profiles\Load101_5min.csv) useactual=false
New Loadshape.Shape_102 npts=288 interval=0.0833 mult=(file=C:\2014\ENWL_Network_Creation\Feeder_Representation\Load_files_Model\Load_profiles\Load102_5min.csv) useactual=false
New Loadshape.Shape_103 npts=288 interval=0.0833 mult=(file=C:\2014\ENWL_Network_Creation\Feeder_Representation\Load_files_Model\Load_profiles\Load103_5min.csv) useactual=false
New Loadshape.Shape_104 npts=288 interval=0.0833 mult=(file=C:\2014\ENWL_Network_Creation\Feeder_Representation\Load_files_Model\Load_profiles\Load104_5min.csv) useactual=false
New Loadshape.Shape_105 npts=288 interval=0.0833 mult=(file=C:\2014\ENWL_Network_Creation\Feeder_Representation\Load_files_Model\Load_profiles\Load105_5min.csv) useactual=false
New Loadshape.Shape_106 npts=288 interval=0.0833 mult=(file=C:\2014\ENWL_Network_Creation\Feeder_Representation\Load_files_Model\Load_profiles\Load106_5min.csv) useactual=false
New Loadshape.Shape_107 npts=288 interval=0.0833 mult=(file=C:\2014\ENWL_Network_Creation\Feeder_Representation\Load_files_Model\Load_profiles\Load107_5min.csv) useactual=false
New Loadshape.Shape_108 npts=288 interval=0.0833 mult=(file=C:\2014\ENWL_Network_Creation\Feeder_Representation\Load_files_Model\Load_profiles\Load108_5min.csv) useactual=false
New Loadshape.Shape_109 npts=288 interval=0.0833 mult=(file=C:\2014\ENWL_Network_Creation\Feeder_Representation\Load_files_Model\Load_profiles\Load109_5min.csv) useactual=false
New Loadshape.Shape_110 npts=288 interval=0.0833 mult=(file=C:\2014\ENWL_Network_Creation\Feeder_Representation\Load_files_Model\Load_profiles\Load110_5min.csv) useactual=false
New Loadshape.Shape_111 npts=288 interval=0.0833 mult=(file=C:\2014\ENWL_Network_Creation\Feeder_Representation\Load_files_Model\Load_profiles\Load111_5min.csv) useactual=false
New Loadshape.Shape_112 npts=288 interval=0.0833 mult=(file=C:\2014\ENWL_Network_Creation\Feeder_Representation\Load_files_Model\Load_profiles\Load112_5min.csv) useactual=false
