New Load.LOAD1 Phases=1 Bus1=45.1 kV=0.23 kW=1 PF=0.95
New Load.LOAD2 Phases=1 Bus1=56.3 kV=0.23 kW=1 PF=0.95
New Load.LOAD3 Phases=1 Bus1=57.3 kV=0.23 kW=1 PF=0.95
New Load.LOAD4 Phases=1 Bus1=73.1 kV=0.23 kW=1 PF=0.95
New Load.LOAD5 Phases=1 Bus1=74.1 kV=0.23 kW=1 PF=0.95
New Load.LOAD6 Phases=1 Bus1=102.2 kV=0.23 kW=1 PF=0.95
New Load.LOAD7 Phases=1 Bus1=107.3 kV=0.23 kW=1 PF=0.95
New Load.LOAD8 Phases=1 Bus1=120.3 kV=0.23 kW=1 PF=0.95
New Load.LOAD9 Phases=1 Bus1=138.3 kV=0.23 kW=1 PF=0.95
New Load.LOAD10 Phases=1 Bus1=142.3 kV=0.23 kW=1 PF=0.95
New Load.LOAD11 Phases=1 Bus1=145.2 kV=0.23 kW=1 PF=0.95
New Load.LOAD12 Phases=1 Bus1=149.3 kV=0.23 kW=1 PF=0.95
New Load.LOAD13 Phases=1 Bus1=153.2 kV=0.23 kW=1 PF=0.95
New Load.LOAD14 Phases=1 Bus1=157.2 kV=0.23 kW=1 PF=0.95
New Load.LOAD15 Phases=1 Bus1=179.3 kV=0.23 kW=1 PF=0.95
New Load.LOAD16 Phases=1 Bus1=184.1 kV=0.23 kW=1 PF=0.95
New Load.LOAD17 Phases=1 Bus1=188.2 kV=0.23 kW=1 PF=0.95
New Load.LOAD18 Phases=1 Bus1=193.3 kV=0.23 kW=1 PF=0.95
